oool and dry but everything is my favourite colour.
new line.
Yet anothe rnew line.

